Circuit: * D:\ECE_Projects\SurvBot\Sim_Circuits\USB_Filter\Pi_Filter.asc


Date: Sun Sep 08 22:38:44 2024
Total elapsed time: 0.056 seconds.

tnom = 27
temp = 27
method = trap
totiter = 0
traniter = 0
tranpoints = 0
accept = 0
rejected = 0
matrix size = 3
fillins = 0
solver = Normal

