Circuit: * D:\ECE_Projects\SurvBot\Sim_Circuits\Pre_ADC_Filter\Draft1.asc

.OP point found by inspection.

Date: Wed Jul 24 14:08:09 2024
Total elapsed time: 0.032 seconds.

tnom = 27
temp = 27
method = modified trap
totiter = 3472
traniter = 3472
tranpoints = 1737
accept = 1370
rejected = 367
matrix size = 2
fillins = 0
solver = Normal
Matrix Compiler1: 36 bytes object code size  0.0/0.0/[0.0]
Matrix Compiler2: 96 bytes object code size  0.0/0.1/[0.0]

