Circuit: * D:\ECE_Projects\SurvBot\Sim_Circuits\Pre_ADC_Filter\Draft1.asc


Date: Mon Jul 29 15:56:40 2024
Total elapsed time: 0.047 seconds.

tnom = 27
temp = 27
method = trap
totiter = 0
traniter = 0
tranpoints = 0
accept = 0
rejected = 0
matrix size = 3
fillins = 1
solver = Normal

